425
# CELL(abcABC): 2.6030055e+01 2.6030055e+01 2.6030055e+01 90.0 90.0 90.0 positions{angstrom} cell{angstrom}
O 25.9695 25.9268 26.0087
Zn 0.934565 1.20007 24.8872
Zn 1.05649 25.0278 1.28071
Zn 24.7194 24.7159 25.0807
Zn 24.8115 1.14813 1.20371
O 1.06814 25.4403 3.13003
C 0.150536 0.161834 3.67887
O 25.2846 0.810708 3.08362
O 22.8817 0.524735 0.953933
C 22.2542 25.6866 0.257317
O 22.7993 24.7328 25.6246
O 24.9825 24.8646 23.1378
C 25.5084 25.8692 22.5708
O 0.117584 0.841686 23.0633
O 0.900025 23.1528 1.1602
C 0.21745 22.5227 0.338925
O 25.3503 23.0653 25.6542
O 0.722219 3.15699 25.3538
C 0.0328836 3.72733 0.210115
O 25.2797 3.06221 0.917234
O 2.81964 0.765384 24.7631
C 3.4066 25.9654 25.5788
O 2.82038 25.3823 0.532159
O 12.8615 0.380924 25.7554
Zn 11.8059 24.9873 0.784156
Zn 13.9679 1.38082 0.903784
Zn 11.804 1.52302 24.6745
Zn 14.0375 25.2503 24.6664
O 15.8818 0.969382 0.629677
C 16.4527 0.0475595 0.0387309
O 15.8476 25.1815 25.4038
O 13.9992 0.122072 22.9278
C 13.1136 0.710762 22.2358
O 12.3284 1.56324 22.7401
O 9.8324 0.885625 24.7206
C 9.22976 26.0016 25.4478
O 9.89432 25.1852 0.171267
O 13.3364 3.26466 0.6457
C 12.6919 3.91014 25.7836
O 11.8824 3.41674 24.8981
O 12.728 23.2079 0.649239
C 13.132 22.682 25.5264
O 13.4118 23.3103 24.4592
O 11.7478 25.4717 2.71529
C 12.6409 0.152179 3.34186
O 13.4932 0.853835 2.79071
O 0.135176 13.2015 0.620992
Zn 1.27758 12.056 25.5568
Zn 24.9767 14.2753 25.5899
Zn 1.24928 14.4441 1.74617
Zn 24.8905 12.1931 1.75708
O 23.0911 13.7317 25.5476
C 22.4906 12.9651 0.29234
O 23.0068 12.3453 1.29978
O 25.1174 12.516 3.70769
C 26.0207 13.2338 4.25868
O 0.724858 13.9723 3.61335
O 3.09258 14.164 1.19199
C 3.73972 13.2569 0.582828
O 3.18187 12.3306 25.9071
O 25.2678 16.1478 0.0638984
C 0.194913 16.774 0.58938
O 0.980989 16.2912 1.46125
O 1.03494 10.1612 25.8674
C 0.215521 9.62 0.669035
O 25.275 10.2228 1.26591
O 1.10154 12.5663 23.6724
C 0.187953 13.2251 23.106
O 25.3319 13.9736 23.6753
O 13.1087 13.1163 25.6209
Zn 11.7919 11.9792 24.6371
Zn 14.344 14.1977 24.5298
Zn 14.2423 12.0378 0.761087
Zn 12.1154 14.375 0.813414
O 14.0475 16.1097 25.0017
C 13.3597 16.8246 25.7279
O 12.6717 16.3431 0.655434
O 12.6495 14.0327 2.65536
C 13.2421 13.108 3.24138
O 13.8787 12.18 2.65943
O 14.2502 10.1191 0.358022
C 13.3509 9.61759 25.6463
O 12.3669 10.2057 25.0367
O 16.3279 13.8492 24.9976
C 16.8069 13.0626 25.8434
O 16.139 12.4832 0.715235
O 9.95767 12.4345 25.2441
C 9.46765 13.2833 0.0366788
O 10.0932 14.2905 0.475123
O 12.2094 12.3033 22.7287
C 12.956 13.0915 22.0664
O 13.7152 13.9036 22.6653
O 25.8744 0.130786 13.0938
Zn 0.851143 24.9961 11.8288
Zn 24.868 1.53008 11.9605
Zn 1.07393 1.00397 14.4265
Zn 24.6402 25.1312 14.0439
O 22.9389 1.4253 12.2825
C 22.2952 0.438866 12.9163
O 22.7627 25.5754 13.6233
O 24.7609 25.3987 16.0126
C 25.7327 25.8884 16.7542
O 0.658683 0.533881 16.3109
O 2.88411 0.532782 14.0513
C 3.34076 25.8432 13.0878
O 2.71092 25.1221 12.2262
O 25.7024 3.25431 12.5852
C 0.464605 3.76171 13.4497
O 1.11647 3.0258 14.2679
O 0.182686 23.0883 12.3855
C 25.3811 22.5191 13.1472
O 24.5482 23.2014 13.7614
O 0.795758 25.5298 10.0336
C 0.153612 0.454804 9.487
O 25.5509 1.34845 10.1068
O 12.8812 25.6571 12.7165
Zn 13.8157 0.732309 11.528
Zn 11.7949 24.4584 11.4681
Zn 11.7582 0.659041 13.9751
Zn 14.261 24.5638 13.971
O 12.3803 22.6679 11.9295
C 13.1599 22.1253 12.7438
O 14.0385 22.6727 13.5039
O 13.8753 24.8501 15.9592
C 12.9376 25.5273 16.4981
O 12.0502 0.0930644 15.8488
O 11.9953 2.53992 13.6122
C 12.5722 3.13383 12.7037
O 13.1852 2.61056 11.6941
O 9.75336 24.9917 11.8762
C 9.20788 25.7429 12.7477
O 9.83743 0.335857 13.6414
O 15.8374 0.840006 11.8827
C 16.4872 0.0805185 12.6446
O 15.9433 25.1417 13.2969
O 13.5538 0.451065 9.64125
C 12.8226 25.6006 9.03615
O 12.197 24.628 9.54452
O 0.0396474 13.1888 13.7593
Zn 1.28771 12.0491 14.972
Zn 24.8477 14.136 15.0339
Zn 25.0355 11.8393 12.7279
Zn 1.25035 14.4214 12.5744
O 24.9817 16.1475 14.9926
C 25.6715 16.7064 14.0674
O 0.327733 16.1557 13.1523
O 1.06422 13.7269 10.7353
C 0.17104 13.0853 10.1533
O 25.4123 12.2755 10.7349
O 25.9114 10.1972 12.9493
C 0.665171 9.62585 13.7723
O 1.49134 10.2098 14.6028
O 23.008 13.5296 14.6554
C 22.5418 12.5688 13.9374
O 23.2673 11.7293 13.2938
O 3.20007 12.702 14.841
C 3.76785 13.3909 13.8949
O 3.16442 14.2822 13.2021
O 0.989744 12.0337 16.8464
C 0.0160103 12.6686 17.3717
O 25.1287 13.3794 16.8503
O 12.9873 12.5881 12.6761
Zn 11.8554 13.8325 11.5823
Zn 14.176 13.8139 13.7447
Zn 14.3264 11.4606 11.5038
Zn 11.9081 11.4488 13.852
O 14.0006 13.309 15.671
C 13.0828 12.6185 16.2635
O 12.1873 11.9382 15.718
O 12.4003 9.59591 13.6734
C 12.9445 8.96665 12.7093
O 13.5525 9.4576 11.7365
O 13.9514 12.2812 9.64405
C 12.857 12.7271 9.10349
O 11.8482 13.0903 9.76994
O 16.0991 13.4089 13.6783
C 16.7591 12.4597 13.1353
O 16.2072 11.6748 12.2925
O 10.0259 13.8408 12.3751
C 9.47672 12.9427 13.0784
O 10.0356 11.8958 13.572
O 12.1959 15.851 11.6767
C 12.9893 16.3938 12.4697
O 13.8031 15.7555 13.2303
C 25.0933 7.34212 0.991124
C 25.0332 5.97249 0.856711
C 0.149173 5.2888 0.322496
C 1.32007 5.98096 26.0229
C 1.42009 7.39695 0.291034
C 0.261721 8.1102 0.675917
H 24.1026 5.39412 1.08828
H 2.13738 5.45121 25.6195
H 2.34811 7.9161 0.18772
H 24.1537 7.74227 1.33995
C 1.41931 18.9266 1.01145
C 1.3762 20.3679 1.0712
C 0.326746 21.0557 0.374994
C 25.3365 20.3071 25.7314
C 25.4549 18.9283 25.6392
C 0.340846 18.265 0.377187
H 2.14618 20.9476 1.57981
H 24.5797 20.7329 25.0434
H 24.8059 18.4018 24.9268
H 2.32429 18.3773 1.2726
C 0.757576 25.324 7.36563
C 0.724637 25.2072 6.01332
C 0.14219 0.18755 5.18037
C 25.6487 1.28982 5.81937
C 25.6578 1.42792 7.19475
C 0.15908 0.41634 7.99239
H 1.28699 24.3575 5.60134
H 25.2774 2.11696 5.19371
H 25.2477 2.2931 7.75013
H 1.23425 24.6373 8.01656
C 24.7712 24.8787 18.9423
C 24.6608 24.9628 20.3479
C 25.4865 25.8968 21.0571
C 0.260913 0.757709 20.3484
C 0.260891 0.808654 18.9554
C 25.5773 25.8506 18.2581
H 24.1619 24.2128 20.9723
H 0.821585 1.43358 20.9154
H 0.662956 1.61514 18.3105
H 24.4313 23.9998 18.4699
C 18.7658 0.767801 1.04867
C 20.1656 0.691358 1.10873
C 20.7658 25.8752 0.20938
C 20.0255 25.1133 25.3014
C 18.6359 25.2663 25.151
C 18.0095 0.0397487 0.0873333
H 20.689 1.28865 1.85179
H 20.4834 24.4607 24.5708
H 18.1296 24.6717 24.3516
H 18.1707 1.52172 1.62358
C 5.66887 0.382657 24.3902
C 7.04478 0.467559 24.469
C 7.72263 25.8687 25.4294
C 7.03076 25.2022 0.421631
C 5.66584 25.1529 0.424632
C 4.98954 25.8423 25.4756
H 7.65767 0.99595 23.7533
H 7.6414 24.8063 1.27019
H 5.06207 24.7316 1.31829
H 5.02606 0.828257 23.5872
C 13.9675 7.43888 0.55166
C 13.813 6.04082 0.620057
C 12.9713 5.40358 25.7059
C 12.3933 6.16564 24.6676
C 12.6362 7.51993 24.5331
C 13.3049 8.11121 25.563
H 14.1756 5.51003 1.49939
H 11.6299 5.83735 23.9806
H 12.3366 8.1119 23.7052
H 14.6307 7.8601 1.35765
C 13.2197 19.0919 0.741171
C 13.1667 20.5125 0.649206
C 13.2806 21.1773 25.4904
C 13.4982 20.4013 24.3115
C 13.6681 18.9861 24.3939
C 13.4233 18.3215 25.6127
H 13.0008 21.1056 1.51782
H 13.4341 20.9128 23.3374
H 13.8423 18.396 23.4464
H 13.0558 18.6105 1.76808
C 12.0151 24.9977 5.42179
C 12.0619 24.7997 6.82128
C 12.762 25.7342 7.57622
C 13.4903 0.758232 6.9675
C 13.4459 0.982806 5.57697
C 12.6922 0.0448523 4.81796
H 11.5515 24.0392 7.38936
H 14.0857 1.46673 7.50303
H 13.9462 1.77843 5.04162
H 11.4471 24.1995 4.94707
C 13.821 25.1447 20.2563
C 13.6706 24.8757 18.9007
C 12.9926 25.7219 17.9919
C 12.3016 0.734038 18.4705
C 12.2592 0.999516 19.8252
C 13.0558 0.291 20.7383
H 14.1544 24.0476 18.444
H 11.6046 1.30458 17.8452
H 11.5694 1.82706 20.1258
H 14.3558 24.5281 20.8942
C 1.03002 14.0931 7.87687
C 0.862096 14.1508 6.51757
C 0.0902719 13.2436 5.80147
C 25.3973 12.2639 6.49942
C 25.6073 12.1182 7.86794
C 0.290412 13.1062 8.554
H 1.34599 15.0312 6.03447
H 24.806 11.5579 5.85869
H 25.2134 11.2139 8.38339
H 1.72167 14.7088 8.44913
C 1.00979 12.0623 19.6263
C 1.07764 12.1858 20.9968
C 0.105174 12.9952 21.6338
C 25.1099 13.6147 20.8565
C 24.9771 13.2923 19.4981
C 26.0087 12.6737 18.8547
H 1.83773 11.672 21.7279
H 24.3558 14.252 21.3382
H 24.1398 13.6629 18.9078
H 1.83792 11.4555 19.2553
C 19.0576 13.2109 24.7482
C 20.4644 13.236 24.9226
C 21.0028 12.8543 0.107496
C 20.1888 12.4168 1.17879
C 18.8136 12.4647 1.05846
C 18.3053 12.92 25.8532
H 21.1026 13.4273 24.0672
H 20.5084 12.0439 2.12738
H 18.1025 12.2922 1.91746
H 18.6009 13.3673 23.7394
C 7.39825 14.1186 1.26947
C 6.00282 14.1324 1.37718
C 5.24331 13.1541 0.671135
C 5.94152 12.0675 0.0608205
C 7.32437 12.0668 0.0329368
C 8.06082 13.151 0.44402
H 5.53604 15.0079 1.80377
H 5.33679 11.2468 25.6771
H 7.77394 11.1939 25.5603
H 7.87774 14.9654 1.77364
C 13.8017 12.0912 6.8424
C 14.0024 12.2042 5.47862
C 13.1556 13.0778 4.7369
C 12.2568 13.9272 5.44481
C 12.2535 13.8906 6.84063
C 12.9305 12.9153 7.55826
H 14.663 11.5436 4.93673
H 11.6642 14.5807 4.88681
H 11.4903 14.4563 7.39173
H 14.3094 11.2762 7.31554
C 13.9338 13.4559 18.5001
C 13.8843 13.6543 19.8874
C 13.0168 12.8696 20.5833
C 12.1464 11.9211 19.9834
C 12.1691 11.8361 18.5814
C 13.054 12.6241 17.8208
H 14.5141 14.2987 20.5108
H 11.3405 11.5785 20.5945
H 11.502 11.1273 18.1416
H 14.7313 14.1512 18.1242
C 25.8948 6.13044 12.6146
C 0.0233492 7.57235 12.6724
C 0.646671 8.15393 13.7465
C 1.16083 7.37061 14.77
C 1.04953 5.92809 14.701
C 0.449175 5.31355 13.6076
H 25.5563 8.22352 11.9781
H 1.61193 7.872 15.6431
H 1.47078 5.31244 15.5652
H 25.4965 5.55237 11.7503
C 24.4015 20.3703 13.9482
C 24.5093 18.9592 14.1963
C 25.6465 18.2168 13.8078
C 0.679677 18.9194 13.2145
C 0.634868 20.3311 13.0727
C 25.467 21.0039 13.4011
H 23.7 18.4708 14.631
H 1.60701 18.432 12.9703
H 1.48431 20.8392 12.655
H 23.4052 20.8433 14.1492
C 20.098 25.5859 13.663
C 18.7463 25.3166 13.5078
C 17.9767 0.115213 12.7038
C 18.6049 1.09838 11.8752
C 20.02 1.30566 12.0606
C 20.7884 0.491618 12.8665
H 18.1851 24.5892 13.995
H 17.9575 1.80088 11.369
H 20.4344 2.11252 11.4846
H 20.7579 25.0224 14.3232
C 6.91581 25.7104 11.6522
C 5.51225 25.6776 11.7566
C 4.80135 25.8895 12.9973
C 5.62304 0.0708286 14.1128
C 7.05009 0.0869823 14.0377
C 7.68528 25.8527 12.7601
H 4.93997 25.6766 10.7843
H 5.25864 0.373288 15.0484
H 7.66932 0.336448 14.9126
H 7.27599 25.6157 10.6258
C 11.9063 6.83665 13.5344
C 11.8416 5.44826 13.5823
C 12.5099 4.6485 12.6672
C 13.2103 5.29983 11.6782
C 13.502 6.69527 11.7461
C 12.7667 7.48369 12.6284
H 11.1727 4.99431 14.3336
H 13.8921 4.63958 11.0122
H 14.2073 7.13523 10.9665
H 11.2716 7.43979 14.1575
C 12.2317 18.6723 11.7628
C 12.2322 20.0809 11.8561
C 13.0828 20.6858 12.7436
C 13.8648 19.91 13.6468
C 13.7621 18.5091 13.6349
C 12.9933 17.8912 12.6516
H 11.5985 20.6394 11.0941
H 14.5316 20.3025 14.391
H 14.3453 17.9498 14.3222
H 11.4913 18.2281 11.0791
C 19.0332 11.3425 12.9261
C 20.4598 11.3698 13.1714
C 21.0159 12.3987 13.8796
C 20.2101 13.372 14.4952
C 18.8072 13.3318 14.314
C 18.2239 12.4027 13.4341
H 21.1271 10.562 12.8578
H 20.7075 14.1536 15.1422
H 18.2082 14.0092 14.8714
H 18.6196 10.6038 12.3542
C 5.93042 14.0231 12.7797
C 7.3093 14.1062 12.6961
C 8.02691 13.0959 13.3746
C 7.36976 12.229 14.1974
C 5.96695 12.2165 14.3695
C 5.28294 13.2007 13.6612
H 7.69256 14.9077 12.0943
H 7.89659 11.2942 14.4918
H 5.4538 11.4841 14.9594
H 5.35305 14.6892 12.1619
He 1.19023 20.3719 18.3043
